ID NASTRAN_IO, NASTRAN_IO
MAT1           1  2.9E+7  1.1E+7    0.327.331E-4  6.6E-6     70.
GRID*                  1               1             100            -141       1
*      1               0
GRID*                  2               1             100            -141       2
*      2             1.6
GRID*                  3               1             100            -100       3
*      3               0
GRID*                  4               1             100            -100       4
*      4             1.6
GRID*                  5               1           157.5            -141       5
*      5               0
GRID*                  6               1           157.5            -141       6
*      6             1.6
GRID*                  7               1             100            -141       7
*      7               0
GRID*                  8               1             100            -141       8
*      8             1.6
GRID*                  9               1             100            -100       9
*      9             1.6
GRID*                 10               1           143.5            -100      10
*     10             1.6
GRID*                 11               1             100            -100      11
*     11               0
GRID*                 12               1           143.5            -100      12
*     12               0
GRID*                 13               1100.821481591082-116.83129905038      13
*     13               0
GRID*                 14               1         100.784        -117.116      14
*     14               0
GRID*                 15               1             100            -100      15
*     15               0
GRID*                 16               1         100.784        -117.916      16
*     16               0
GRID*                 17               1             100            -141      17
*     17               0
GRID*                 18               1100.821481591082-118.20070094961      18
*     18               0
GRID*                 19               1100.888981591082-138.33129905038      19
*     19               0
GRID*                 20               1100.931372055837        -118.466      20
*     20               0
$ ... 4244 like lines cut
CTRIA3         2       1       1       2       3
CTRIA3         4       1       3       2       4
CTRIA3         6       1       5       6       7
CTRIA3         8       1       7       6       8
CTRIA3        10       1       9      10      11
CTRIA3        12       1      11      10      12
CTRIA3        14       1      13      14      15
CTRIA3        16       1      15      14      16
CTRIA3        18       1      15      16      17
CTRIA3        20       1      17      16      18
CTRIA3        22       1      17      18      19
CTRIA3        24       1      19      18      20
CTRIA3        26       1      19      20      21
CTRIA3        28       1      21      20      22
CTRIA3        30       1      21      22      23
CTRIA3        32       1      23      22      24
CTRIA3        34       1      23      24      25
CTRIA3        36       1      25      24      26
CTRIA3        38       1      25      26      27
CTRIA3        40       1      27      26      28
$ ... 1332 like lines cut
CROD           1       1    1367    1368
CROD           2       1    1369    1370
CROD           3       1    1371    1372
CROD           4       1    1373    1374
CROD           5       1    1375    1376
CROD           6       1    1377    1378
CROD           7       1    1379    1380
CROD           8       1    1381    1382
CROD           9       1    1383    1384
CROD          10       1    1385    1386
CROD          11       1    1387    1388
CROD          12       1    1389    1390
CROD          13       1    1391    1392
CROD          14       1    1393    1394
CROD          15       1    1394    1395
CROD          16       1    1395    1396
CROD          17       1    1396    1397
CROD          18       1    1397    1398
CROD          19       1    1398    1399
CROD          20       1    1399    1400
$ ... 663 like lines cut
ENDDATA

